Circuit: * C:\users\jigani\Documents\KiCAD\555_badge\555_badge.asc

Direct Newton iteration for .op point succeeded.

Date: Sat Oct 30 02:55:34 2021
Total elapsed time: 0.134 seconds.

tnom = 27
temp = 27
method = modified trap
totiter = 7414
traniter = 7404
tranpoints = 2707
accept = 2546
rejected = 161
matrix size = 22
fillins = 0
solver = Normal
Matrix Compiler1: 908 bytes object code size  0.5/0.4/[0.3]
Matrix Compiler2: 1.49 KB object code size  0.3/0.5/[0.3]

